* Subcircuito para protectores de sobretensiones

.subckt protector_sobretension 1 K 2
    D1 1 K Diodo
    D2 K 2 Diodo
    .model Diodo D
.ends protector_sobretension

* Definici칩n del protector de sobretensi칩n
Vz Vin 0 DC 5V
Xps Vin Vk 0 protector_sobretension

* An치lisis de Transitorio


*Plotear Gr치ficas
.control
    TRAN 1u 5m
    gnuplot graf_tran_xps V(Vin) V(Vk)

    dc Vz -40 40 0.1
    gnuplot graf_dc_xps V(Vk)
.endc

.end